PGAz_V.Demo/pgaz_data/pgaz_data_ieee118bus.m
%IEEE118bus.m

%   Load Flow Analysis of IEEE 118-Bus System
% 1 - Slack Bus..
% 2 - PV Bus..
% 0 - PQ Bus..

%        Bus Bus  Voltage Angle   ---Load---- -------Generator----- Static Mvar  Gshunt
%        No  code Mag.    Degree  MW    Mvar  MW  Mvar Qmin Qmax    +Qc/-Ql
bus.con = [ 1	2	0.955	0	51	27	  0     0	  -5	 15	    0
            2	0	1	    0	20	 9	  0	    0	   0	  0	    0
            3	0	1	    0	39	10	  0	    0	   0	  0	    0
            4	2	0.998	0	39	12	  0 	0   -300	300	    0
            5	0	1	    0	 0	 0	  0	    0      0	  0	  -40
            6	2	0.99	0	52	22	  0	    0    -13	 50	    0
            7	0	1	    0	19	 2	  0	    0	   0	  0	    0
            8	2	1.015	0	28	 0	  0	    0   -300	300	    0
            9	0	1	    0	 0	 0	  0	    0	   0	  0	    0
            10	2	1.05	0	 0	 0	450	    0   -147	200	    0
            11	0	1	    0	70	23	  0	    0	   0	  0	    0
            12	2	0.99	0	47	10	 85	    0    -35	120	    0
            13	0	1	    0	34	16	  0	    0	   0	  0	    0
            14	0	1	    0	14	 1	  0	    0	   0	  0 	0
            15	2	0.97	0	90	30	  0	    0    -10	 30	    0
            16	0	1	    0	25	10	  0	    0	   0	  0	    0
            17	0	1	    0	11	 3	  0	    0	   0	  0	    0
            18	2	0.973	0	60	34	  0	    0    -16	 50	    0
            19	2	0.962	0	45	25	  0	    0     -8	 24	    0
            20	0	1	    0	18	 3	  0	    0	   0	  0	    0
            21	0	1	    0	14	 8	  0	    0	   0	  0	    0
            22	0	1	    0  	10	 5	  0	    0	   0	  0	    0   
            23	0	1	    0	 7	 3	  0	    0	   0	  0	    0
            24	2	0.992	0	13	 0	  0	    0   -300	300	    0
            25	2	1.05	0	 0	 0	220	    0    -47	140	    0   
            26	2	1.015	0	 0	 0	314	    0  -1000   1000	    0
            27	2	0.968	0	71	13	  0 	0	-300	300	    0
            28	0	1	    0	17	 7	  0	    0	   0	  0	    0      
            29	0	1	    0	24	 4	  0	    0	   0	  0	    0
            30	0	1	    0	 0	 0	  0	    0 	   0	  0 	0
            31	2	0.967	0	43	27	  7	    0	-300	300	    0
            32	2	0.963	0	59	23	  0	    0	 -14	 42	    0
            33	0	1	    0	23	 9	  0	    0	   0	  0	    0
            34	2	0.984	0	59	26	  0	    0 	  -8	 24	   14
            35	0	1	    0	33	 9	  0	    0      0	  0	    0
            36	2	0.98	0	31	17	  0	    0	  -8	 24	    0
            37	0	1	    0	 0	 0	  0	    0	   0	  0	  -25
            38	0	1	    0	 0	 0	  0	    0	   0	  0	    0
            39	0	1	    0	27	11	  0	    0	   0	  0	    0
            40	2	0.97	0	66	23	  0	    0	-300	300	    0
            41	0	1	    0	37	10	  0	    0	   0	  0	    0
            42	2	0.985	0	96	23	  0	    0	-300	300	    0
            43	0	1	    0	18	 7	  0	    0	   0	  0	    0
            44	0	1	    0	16	 8	  0	    0	   0	  0	   10  
            45	0	1	    0	53	22	  0	    0	   0	  0	   10
            46	2	1.005	0	28	10	 19	    0	-100	100	   10
            47	0	1	    0	34	 0	  0	    0	   0	  0	    0
            48	0	1	    0	20	11	  0	    0	   0	  0    15
            49	2	1.025	0	87	30	204	    0	 -85	210	    0
            50	0	1	    0	17	 4	  0	    0	   0	  0	    0   
            51	0	1	    0	17	 8	  0	    0	   0	  0	    0
            52	0	1	    0	18	 5	  0	    0	   0	  0	    0
            53	0	1	    0	23	11	  0	    0	   0	  0	    0
            54	2	0.955	0  113	32	 48	    0	-300	300	    0
            55	2	0.952	0	63	22	  0	    0	  -8	 23	    0
            56	2	0.954	0	84	18	  0	    0	  -8	 15	    0   
            57	0	1	    0	12	 3	  0	    0	   0	  0	    0
            58	0	1	    0	12	 3	  0	    0 	   0	  0	    0
            59	2	0.985	0  277 113	155	    0	 -60	180 	0
            60	0	1	    0	78	 3	  0	    0	   0	  0	    0
            61	2	0.995	0	 0	 0	160	    0	-100	300	    0
            62	2	0.998	0	77	14	  0	    0	 -20	 20	    0
            63	0	1	    0	 0	 0	  0	    0	   0	  0	    0         
            64	0	1	    0	 0	 0	  0	    0	   0	  0	    0
            65	2	1.005	0	 0	 0	391	    0	 -67	200	    0
            66	2	1.05	0	39	18	392	    0	 -67	200	    0
            67	0	1	    0	28	 7	  0	    0	   0	  0	    0
            68	0	1	    0	 0	 0	  0	    0	   0	  0	    0
            69	1	1.035	0	 0	 0	516.4	0	-300	300	    0   
            70	2	0.984	0	66	20	  0	    0	 -10	 32	    0
            71	0	1	    0	 0	 0	  0	    0	   0	  0	    0   
            72	2	0.98	0	12	 0	  0	    0	-100	100	    0
            73	2	0.991	0	 6	 0	  0	    0	-100	100	    0
            74	2	0.958	0	68	27	  0	    0	  -6	  9	   12
            75	0	1	    0	47	11	  0	    0	   0	  0	    0
            76	2	0.943	0	68	36	  0	    0	  -8	 23	    0
            77	2	1	    0	61	28	  0	    0 	 -20	 70	    0
            78	0	1	    0	71	26	  0	    0	   0	  0   	0
            79	0	1	    0	39	32	  0	    0	   0	  0	   20
            80	2	1.04	0  130	26	477	    0	-165	280	    0
            81	0	1	    0	 0	 0	  0	    0	   0	  0	    0
            82	0	1	    0	54	27	  0	    0	   0	  0	   20
            83	0	1	    0	20	10	  0	    0	   0 	  0	   10
            84	0	1	    0	11	 7	  0	    0	   0 	  0	    0
            85	2	0.985	0	24	15	  0	    0	  -8	 23	    0
            86	0	1	    0	21	10	  0	    0	   0	  0	    0
            87	2	1.015	0	 0	 0	  4	    0	-100   1000	    0
            88	0	1	    0	48	10	  0	    0	   0	  0	    0   
            89	2	1.005	0	 0	 0	607	    0	-210	300	    0
            90	2	0.985	0  163	42	  0	    0	-300	300	    0
            91	2	0.98	0	10	 0	  0	    0	-100	100	    0
            92	2	0.99	0	65	10	  0	    0	  -3	  9	    0
            93	0	1	    0	12	 7	  0	    0	   0	  0	    0   
            94	0	1	    0	30	16	  0	    0	   0	  0	    0
            95	0	1	    0	42	31	  0	    0	   0	  0	    0
            96	0	1	    0	38	15	  0	    0	   0	  0	    0
            97	0	1	    0	15	 9	  0	    0	   0	  0	    0
            98	0	1	    0	34	 8	  0	    0	   0	  0	    0
            99	2	1.01	0	42	 0	  0	    0	-100	100	    0
            100	2	1.017	0	37	18	252	    0	 -50	155	    0
            101	0	1	    0	22	15	  0	    0	   0	  0	    0
            102	0	1	    0	 5	 3	  0	    0	   0	  0	    0
            103	2	1.01	0	23	16	 40	    0	 -15	 40	    0
            104	2	0.971	0	38	25	  0	    0	  -8	 23	    0
            105	2	0.965	0	31	26	  0	    0	  -8	 23	   20
            106	0	1	    0	43	16	  0	    0	   0	  0	    0
            107	2	0.952	0	50	12	  0	    0	-200	200	    6
            108	0	1	    0	 2	 1	  0	    0	   0	  0	    0
            109	0	1	    0	 8	 3	  0	    0	   0	  0	    0
            110	2	0.973	0	39	30	  0	    0	  -8	 23	    6
            111	2	0.98	0	 0	 0	 36	    0	-100   1000	    0
            112	2	0.975	0	68	13	  0	    0	-100   1000	    0
            113	2	0.993	0	 6	 0	  0	    0	-100	200	    0
            114	0	1	    0	 8	 3	  0	    0	   0	  0	    0
            115	0	1	    0	22	 7	  0	    0	   0	  0	    0
            116	2	1.005	0  184	 0	  0	    0  -1000   1000	    0
            117	0	1	    0	20	 8	  0	    0	   0	  0	    0
            118	0	1	    0	33	15	  0	    0	   0	  0	    0
          ];
                                
%                                 Line code

%         Bus bus   R      X     1/2 B   = 1 for lines
%         nl  nr  p.u.   p.u.   p.u.     > 1 or < 1 tr. tap at bus nl
line.con = [1	2	0.03030	0.09990	0.01270	1
            1	3	0.01290	0.04240	0.00541	1
            4	5	0.00176	0.00798	0.00105	1
            3	5	0.02410	0.10800	0.01420	1
            5	6	0.01190	0.05400	0.00713	1
            6	7	0.00459	0.02080	0.00275	1
            8	9	0.00244	0.03050	0.58100	1
            8	5	0.00000	0.02670	0.00000	0.985
            9	10	0.00258	0.03220	0.61500	1
            4	11	0.02090	0.06880	0.00874	1
            5	11	0.02030	0.06820	0.00869	1
            11	12	0.00595	0.01960	0.00251	1
            2	12	0.01870	0.06160	0.00786	1
            3	12	0.04840	0.16000	0.02030	1
            7	12	0.00862	0.03400	0.00437	1
            11	13	0.02225	0.07310	0.00938	1
            12	14	0.02150	0.07070	0.00908	1
            13	15	0.07440	0.24440	0.03134	1
            14	15	0.05950	0.19500	0.02510	1
            12	16	0.02120	0.08340	0.01070	1
            15	17	0.01320	0.04370	0.02220	1
            16	17	0.04540	0.18010	0.02330	1
            17	18	0.01230	0.05050	0.00649	1
            18	19	0.01119	0.04930	0.00571	1
            19	20	0.02520	0.11700	0.01490	1
            15	19	0.01200	0.03940	0.00505	1
            20	21	0.01830	0.08490	0.01080	1
            21	22	0.02090	0.09700	0.01230	1
            22	23	0.03420	0.15900	0.02020	1
            23	24	0.01350	0.04920	0.02490	1
            23	25	0.01560	0.08000	0.04320	1
            26	25	0.00000	0.03820	0.00000	0.96
            25	27	0.03180	0.16300	0.08820	1
            27	28	0.01913	0.08550	0.01080	1
            28	29	0.02370	0.09430	0.01190	1
            30	17	0.00000	0.03880	0.00000	0.96
            8	30	0.00431	0.05040	0.25700	1
            26	30	0.00799	0.08600	0.45400	1
            17	31	0.04740	0.15630	0.01995	1
            29	31	0.01080	0.03310	0.00415	1
            23	32	0.03170	0.11530	0.05865	1
            31	32	0.02980	0.09850	0.01255	1
            27	32	0.02290	0.07550	0.00963	1
            15	33	0.03800	0.12440	0.01597	1
            19	34	0.07520	0.24700	0.03160	1
            35	36	0.00224	0.01020	0.00134	1
            35	37	0.01100	0.04970	0.00659	1
            33	37	0.04150	0.14200	0.01830	1
            34	36	0.00871	0.02680	0.00284	1
            34	37	0.00256	0.00940	0.00492	1
            38	37	0.00000	0.03750	0.00000	0.935
            37	39	0.03210	0.10600	0.01350	1
            37	40	0.05930	0.16800	0.02100	1
            30	38	0.00464	0.05400	0.21100	1
            39	40	0.01840	0.06050	0.00776	1
            40	41	0.01450	0.04870	0.00611	1
            40	42	0.05550	0.18300	0.02330	1
            41	42	0.04100	0.13500	0.01720	1
            43	44	0.06080	0.24540	0.03034	1
            34	43	0.04130	0.16810	0.02113	1
            44	45	0.02240	0.09010	0.01120	1
            45	46	0.04000	0.13560	0.01660	1
            46	47	0.03800	0.12700	0.01580	1
            46	48	0.06010	0.18900	0.02360	1
            47	49	0.01910	0.06250	0.00802	1
            42	49	0.07150	0.32300	0.04300	1
            42	49	0.07150	0.32300	0.04300	1
            45	49	0.06840	0.18600	0.02220	1
            48	49	0.01790	0.05050	0.00629	1
            49	50	0.02670	0.07520	0.00937	1
            49	51	0.04860	0.13700	0.01710	1
            51	52	0.02030	0.05880	0.00698	1
            52	53	0.04050	0.16350	0.02029	1
            53	54	0.02630	0.12200	0.01550	1
            49	54	0.07300	0.28900	0.03690	1
            49	54	0.08690	0.29100	0.03650	1
            54	55	0.01690	0.07070	0.01010	1
            54	56	0.00275	0.00955	0.00366	1
            55	56	0.00488	0.01510	0.00187	1
            56	57	0.03430	0.09660	0.01210	1
            50	57	0.04740	0.13400	0.01660	1
            56	58	0.03430	0.09660	0.01210	1
            51	58	0.02550	0.07190	0.00894	1
            54	59	0.05030	0.22930	0.02990	1
            56	59	0.08250	0.25100	0.02845	1
            56	59	0.08030	0.23900	0.02680	1
            55	59	0.04739	0.21580	0.02823	1
            59	60	0.03170	0.14500	0.01880	1
            59	61	0.03280	0.15000	0.01940	1
            60	61	0.00264	0.01350	0.00728	1
            60	62	0.01230	0.05610	0.00734	1
            61	62	0.00824	0.03760	0.00490	1
            63	59	0.00000	0.03860	0.00000	0.96
            63	64	0.00172	0.02000	0.10800	1
            64	61	0.00000	0.02680	0.00000	0.985
            38	65	0.00901	0.09860	0.52300	1
            64	65	0.00269	0.03020	0.19000	1
            49	66	0.01800	0.09190	0.01240	1
            49	66	0.01800	0.09190	0.01240	1
            62	66	0.04820	0.21800	0.02890	1
            62	67	0.02580	0.11700	0.01550	1
            65	66	0.00000	0.03700	0.00000	0.935
            66	67	0.02240	0.10150	0.01341	1
            65	68	0.00138	0.01600	0.31900	1
            47	69	0.08440	0.27780	0.03546	1
            49	69	0.09850	0.32400	0.04140	1
            68	69	0.00000	0.03700	0.00000	0.935
            69	70	0.03000	0.12700	0.06100	1
            24	70	0.00221	0.41150	0.05099	1
            70	71	0.00882	0.03550	0.00439	1
            24	72	0.04880	0.19600	0.02440	1
            71	72	0.04460	0.18000	0.02222	1
            71	73	0.00866	0.04540	0.00589	1
            70	74	0.04010	0.13230	0.01684	1
            70	75	0.04280	0.14100	0.01800	1
            69	75	0.04050	0.12200	0.06200	1
            74	75	0.01230	0.04060	0.00517	1
            76	77	0.04440	0.14800	0.01840	1
            69	77	0.03090	0.10100	0.05190	1
            75	77	0.06010	0.19990	0.02489	1
            77	78	0.00376	0.01240	0.00632	1
            78	79	0.00546	0.02440	0.00324	1
            77	80	0.01700	0.04850	0.02360	1
            77	80	0.02940	0.10500	0.01140	1
            79	80	0.01560	0.07040	0.00935	1
            68	81	0.00175	0.02020	0.40400	1
            81	80	0.00000	0.03700	0.00000	0.935
            77	82	0.02980	0.08530	0.04087	1
            82	83	0.01120	0.03665	0.01898	1
            83	84	0.06250	0.13200	0.01290	1
            83	85	0.04300	0.14800	0.01740	1
            84	85	0.03020	0.06410	0.00617	1
            85	86	0.03500	0.12300	0.01380	1
            86	87	0.02828	0.20740	0.02225	1
            85	88	0.02000	0.10200	0.01380	1
            85	89	0.02390	0.17300	0.02350	1
            88	89	0.01390	0.07120	0.00967	1
            89	90	0.05180	0.18800	0.02640	1
            89	90	0.02380	0.09970	0.05300	1
            90	91	0.02540	0.08360	0.01070	1
            89	92	0.00990	0.05050	0.02740	1
            89	92	0.03930	0.15810	0.02070	1
            91	92	0.03870	0.12720	0.01634	1
            92	93	0.02580	0.08480	0.01090	1
            92	94	0.04810	0.15800	0.02030	1
            93	94	0.02230	0.07320	0.00938	1
            94	95	0.01320	0.04340	0.00555	1
            80	96	0.03560	0.18200	0.02470	1
            82	96	0.01620	0.05300	0.02720	1
            94	96	0.02690	0.08690	0.01150	1
            80	97	0.01830	0.09340	0.01270	1
            80	98	0.02380	0.10800	0.01430	1
            80	99	0.04540	0.20600	0.02730	1
            92	100	0.06480	0.29500	0.02360	1
            94	100	0.01780	0.05800	0.03020	1
            95	96	0.01710	0.05470	0.00737	1
            96	97	0.01730	0.08850	0.01200	1
            98	100	0.03970	0.17900	0.02380	1
            99	100	0.01800	0.08130	0.01080	1
            100	101	0.02770	0.12620	0.01640	1
            92	102	0.01230	0.05590	0.00732	1
            101	102	0.02460	0.11200	0.01470	1
            100	103	0.01600	0.05250	0.02680	1
            100	104	0.04510	0.20400	0.02705	1
            103	104	0.04660	0.15840	0.02035	1
            103	105	0.05350	0.16250	0.02040	1
            100	106	0.06050	0.22900	0.03100	1
            104	105	0.00994	0.03780	0.00493	1
            105	106	0.01400	0.05470	0.00717	1
            105	107	0.05300	0.18300	0.02360	1
            105	108	0.02610	0.07030	0.00922	1
            106	107	0.05300	0.18300	0.02360	1
            108	109	0.01050	0.02880	0.00380	1
            103	110	0.03906	0.18130	0.02305	1
            109	110	0.02780	0.07620	0.01010	1
            110	111	0.02200	0.07550	0.01000	1
            110	112	0.02470	0.06400	0.03100	1
            17	113	0.00913	0.03010	0.00384	1
            32	113	0.06150	0.20300	0.02590	1
            32	114	0.01350	0.06120	0.00814	1
            27	115	0.01640	0.07410	0.00986	1
            114	115	0.00230	0.01040	0.00138	1
            68	116	0.00034	0.00405	0.08200	1
            12	117	0.03290	0.14000	0.01790	1
            75	118	0.01450	0.04810	0.00599	1
            76	118	0.01640	0.05440	0.00678	1
            ];
